
No compatibility mode selected!


Circuit: lab1, circuito 1

Doing analysis at TEMP = 27.000000 and TNOM = 27.000000


No. of Data Rows : 6
y                   =  9.090909e-01
Solução: 0.909091
